Circuit: * E:\Users\nerdfloor\Desktop\ACS712_AmMeter\spice\Noise_Filter_01.asc

Limiting rise time of source v1 to 0.0001
Limiting fall time of source v1 to 0.0001
Direct Newton iteration for .op point succeeded.

Date: Fri Jan 03 06:51:51 2020
Total elapsed time: 0.254 seconds.

tnom = 27
temp = 27
method = modified trap
totiter = 7195
traniter = 7192
tranpoints = 3597
accept = 2985
rejected = 612
matrix size = 10
fillins = 2
solver = Normal
Matrix Compiler1: 428 bytes object code size  0.2/0.1/[0.1]
Matrix Compiler2: 854 bytes object code size  0.1/0.1/[0.1]

