Circuit: * E:\Users\nerdfloor\Documents\Develop\ACS712_AmMeter\spice\Noise_Filter_02.asc

Limiting rise time of source v1 to 0.0001
Limiting fall time of source v1 to 0.0001
Direct Newton iteration for .op point succeeded.

Date: Fri Jan 03 17:45:38 2020
Total elapsed time: 0.102 seconds.

tnom = 27
temp = 27
method = trap
totiter = 17
traniter = 0
tranpoints = 0
accept = 0
rejected = 0
matrix size = 10
fillins = 2
solver = Normal
Matrix Compiler1:      25 opcodes
Matrix Compiler2: 854 bytes object code size
